NOTE:
All programs released in this Wire Extras SVN are released under the GPL v3, or their respective licenses. Please review License.txt for terms and conditions.

-----------------
INSTALLATION:

Simply checkout this SVN repository to a folder of your choice, in your garrysmod addons. Do a full restart of your server/game for the addon to take effect.

-----------------
Addon Contributed - developer - link - license (if not GPL v3):

Buoyancy Stool - RabidToaster - http://forums.facepunchstudios.com/showthread.php?p=10186318
Door Stool - Doridian - http://forums.facepunchstudios.com/showthread.php?t=480569
Facer - Incompatible - http://www.wiremod.com/f16/wire-freezer-2352/
Freezer - Incompatible - http://www.wiremod.com/2352-wire-freezer.html
Free Fall's Extentions - http://www.wiremod.com/f16/free-fall-extension-wire-socket-radio-other-stuff-i-made-5129/
	Adv. Dupe. Teleporter
	String Gate (for teleport)
Insanely Huge Memory and Phi Gate - MagnetoHydroDynamics - http://www.wiremod.com/f16/insanely-huge-memory-chips-phi-gate-5018/
_Kilburn's Addons - http://www.wiremod.com/f16/addons-wire-mod-mods-wire-addon-4294/:
	Wire String Gates
	Wire Materializer
	Wire Painter
	Wire Motor
	Wire Microphone
	Wire RFID Systems
Keycards - adb - http://www.wiremod.com/f16/wire-keycards-2143/
Keypad - Robbis_1 - http://forums.facepunchstudios.com/showthread.php?t=276931
Lever - cpf - http://www.wiremod.com/f16/wire-lever-4097/
Multi-wire tool - Incompatible (apparently abandoned) - http://www.wiremod.com/f16/multi-wire-tool-2545/
No Collide Addon - splat2010 - http://www.wiremod.com/f16/no-collide-addon-4777/
Notifier - high6 - http://www.wiremod.com/f16/notifier-3204/
PID Controller (super delta) - Moyer - http://www.wiremod.com/f16/pid-controller-5061/
Servo - Unvarifiable Developer (Incompatible or Exlights are most likely) - No Confirmed Home Thread
XYZ Beacon - Doticatto - http://www.wiremod.com/f16/wired-xyz-beacon-eject-input-socket-4708/


Copyright CoreyLee Hassell (Anticept), and respective developers, 2007, 2008.