NOTE:
All programs released in this Wire Extras SVN are released under the GPL v3, or their respective licenses. Please review License.txt for terms and conditions.

-----------------
INSTALLATION:

Simply checkout this SVN repository to a folder of your choice, in your garrysmod addons. Do a full restart of your server/game for the addon to take effect.

-----------------
Addon Contributed - developer - link - license (if not GPL v3):

Buoyancy Stool - RabidToaster - http://forums.facepunchstudios.com/showthread.php?p=10186318
Directional Radios - -=Fox=- - http://www.wiremod.com/forum/ideas-suggestions/525-wire-directional-radios.html
Door Stool - Doridian - http://forums.facepunchstudios.com/showthread.php?t=480569
Facer - Incompatible - http://www.garrysmod.org/downloads/?a=view&id=20074
Freezer - Incompatible - http://www.wiremod.com/forum/wiremod-addons/2352-wire-freezer.html
Free Fall's Extentions - http://www.wiremod.com/forum/wiremod-addons/5129-free-fall-extension-wire-socket-radio-other-stuff-i-made.html
	Adv. Dupe. Teleporter
	Adv. Dupe RAM-Chip
	String Switch Gate
	RAM-Card's (This addon is still in development)
Insanely Huge Memory and Phi Gate - MagnetoHydroDynamics - http://www.wiremod.com/forum/wiremod-addons/5018-insanely-huge-memory-chips-phi-gate.html/
_Kilburn's Addons - http://www.wiremod.com/forum/wiremod-addons/4294-addons-wire-mod-mods-wire-addon.html :
	Wire String Gates
	Wire Materializer
	Wire Painter
	Wire Motor
	Wire Microphone
	Wire RFID Systems (http://www.wiremod.com/forum/wiremod-addons/3017-wire-rfid-systems.html)
Keycards - adb - http://www.wiremod.com/forum/wiremod-addons/2143-wire-keycards.html
Keypad - Robbis_1 - http://forums.facepunchstudios.com/showthread.php?t=276931
Lever - cpf - http://www.wiremod.com/forum/wiremod-addons/4097-wire-lever.html
Multi-wire tool - Incompatible (apparently abandoned) - http://www.wiremod.com/forum/wiremod-addons/2545-multi-wire-tool.html
No Collide Addon - splat2010 - http://www.wiremod.com/forum/wiremod-addons/4777-no-collide-addon.html
Notifier - high6 - http://www.wiremod.com/forum/wiremod-addons/3204-notifier.html
PID Controller (super delta) - Moyer - http://www.wiremod.com/forum/wiremod-addons/5061-pid-controller.html
Servo - Unvarifiable Developer (Incompatible or Exlights are most likely) - No Confirmed Home Thread
Simple Servo - Selig - http://www.wiremod.com/forum/wiremod-addons/5850-wire-simple-servo.html
XYZ Beacon - Doticatto - http://www.wiremod.com/forum/wiremod-addons/4708-wired-xyz-beacon-eject-input-socket.html


Copyright CoreyLee Hassell (Anticept), and respective developers, 2007, 2008.